  0
SECTION
  2
ENTITIES
999
DXF created from EnergyPlus
999
Program Version,EnergyPlus, Version 9.4.0-998c4b761e, YMD=2023.05.31 15:55
999
Polygon Action,TRIANGULATE3DFACE
999
Color Scheme,Default
999
Text - True North
  0
TEXT
  8
1
  6
Continuous
 62
  3
 10
      -11.00000
 20
        3.00000
 30
        0.10000
 40
 .25
  1
True North
 41
 0.0
  7
MONOTXT
210
0.0
220
0.0
230
1.0
999
Text - Building Title
  0
TEXT
  8
1
  6
Continuous
 62
  3
 10
      -14.00000
 20
       -1.00000
 30
        0.10000
 40
 .4
  1
Building - ShoeboxBaseModel.idf
 41
 0.0
  7
MONOTXT
210
0.0
220
0.0
230
1.0
999
North Arrow Stem
  0
3DFACE
  8
1
 62
  3
 10
      -10.00000
 20
        3.00000
 30
        0.10000
 11
      -10.00000
 21
        3.00000
 31
        0.00000
 12
      -10.00000
 22
        0.00000
 32
        0.00000
 13
      -10.00000
 23
        0.00000
 33
        0.10000
999
North Arrow Head 1
  0
3DFACE
  8
1
 62
  3
 10
      -10.00000
 20
        3.00000
 30
        0.10000
 11
      -10.00000
 21
        3.00000
 31
        0.00000
 12
      -10.50000
 22
        2.13397
 32
        0.00000
 13
      -10.50000
 23
        2.13397
 33
        0.10000
999
North Arrow Head 2
  0
3DFACE
  8
1
 62
  3
 10
      -10.00000
 20
        3.00000
 30
        0.10000
 11
      -10.00000
 21
        3.00000
 31
        0.00000
 12
       -9.50000
 22
        2.13397
 32
        0.00000
 13
       -9.50000
 23
        2.13397
 33
        0.10000
999
North Arrow Side 1
  0
3DFACE
  8
1
 62
  3
 10
      -10.50000
 20
        4.50000
 30
        0.10000
 11
      -10.50000
 21
        4.50000
 31
        0.00000
 12
      -10.50000
 22
        3.50000
 32
        0.00000
 13
      -10.50000
 23
        3.50000
 33
        0.10000
999
North Arrow Side 2
  0
3DFACE
  8
1
 62
  3
 10
      -10.50000
 20
        4.50000
 30
        0.10000
 11
      -10.50000
 21
        4.50000
 31
        0.00000
 12
       -9.50000
 22
        3.50000
 32
        0.00000
 13
       -9.50000
 23
        3.50000
 33
        0.10000
999
North Arrow Side 3
  0
3DFACE
  8
1
 62
  3
 10
       -9.50000
 20
        4.50000
 30
        0.10000
 11
       -9.50000
 21
        4.50000
 31
        0.00000
 12
       -9.50000
 22
        3.50000
 32
        0.00000
 13
       -9.50000
 23
        3.50000
 33
        0.10000
999
Zone Names
999
Zone=1:SHOEBOX
999
SHOEBOX:EXTERNAL_WALL_SOUTH
  0
3DFACE
  8
SHOEBOX
 62
 43
 10
        3.00000
 20
        0.00000
 30
        3.00000
 11
        0.00000
 21
        0.00000
 31
        3.00000
 12
        0.00000
 22
        0.00000
 32
        0.00000
 13
        3.00000
 23
        0.00000
 33
        0.00000
999
SHOEBOX:SOUTH_WINDOW
  0
3DFACE
  8
SHOEBOX
 62
143
 10
        2.44900
 20
        0.00000
 30
        2.44900
 11
        0.55100
 21
        0.00000
 31
        2.44900
 12
        0.55100
 22
        0.00000
 32
        0.55100
 13
        2.44900
 23
        0.00000
 33
        0.55100
999
SHOEBOX:ADIABATIC_WALL_SOUTH
  0
3DFACE
  8
SHOEBOX
 62
 43
 10
        4.00000
 20
        0.00000
 30
        3.00000
 11
        3.00000
 21
        0.00000
 31
        3.00000
 12
        3.00000
 22
        0.00000
 32
        0.00000
 13
        4.00000
 23
        0.00000
 33
        0.00000
999
SHOEBOX:EXTERNAL_WALL_WEST
  0
3DFACE
  8
SHOEBOX
 62
 43
 10
        0.00000
 20
        1.00000
 30
        3.00000
 11
        0.00000
 21
        4.00000
 31
        3.00000
 12
        0.00000
 22
        4.00000
 32
        0.00000
 13
        0.00000
 23
        1.00000
 33
        0.00000
999
SHOEBOX:WEST_WINDOW
  0
3DFACE
  8
SHOEBOX
 62
143
 10
        0.00000
 20
        1.55100
 30
        2.44900
 11
        0.00000
 21
        3.44900
 31
        2.44900
 12
        0.00000
 22
        3.44900
 32
        0.55100
 13
        0.00000
 23
        1.55100
 33
        0.55100
999
SHOEBOX:ADIABATIC_WALL_WEST
  0
3DFACE
  8
SHOEBOX
 62
 43
 10
        0.00000
 20
        0.00000
 30
        3.00000
 11
        0.00000
 21
        1.00000
 31
        3.00000
 12
        0.00000
 22
        1.00000
 32
        0.00000
 13
        0.00000
 23
        0.00000
 33
        0.00000
999
SHOEBOX:EXTERNAL_WALL_NORTH
  0
3DFACE
  8
SHOEBOX
 62
 43
 10
        1.00000
 20
        4.00000
 30
        3.00000
 11
        4.00000
 21
        4.00000
 31
        3.00000
 12
        4.00000
 22
        4.00000
 32
        0.00000
 13
        1.00000
 23
        4.00000
 33
        0.00000
999
SHOEBOX:NORTH_WINDOW
  0
3DFACE
  8
SHOEBOX
 62
143
 10
        1.55100
 20
        4.00000
 30
        2.44900
 11
        3.44900
 21
        4.00000
 31
        2.44900
 12
        3.44900
 22
        4.00000
 32
        0.55100
 13
        1.55100
 23
        4.00000
 33
        0.55100
999
SHOEBOX:ADIABATIC_WALL_NORTH
  0
3DFACE
  8
SHOEBOX
 62
 43
 10
        0.00000
 20
        4.00000
 30
        3.00000
 11
        1.00000
 21
        4.00000
 31
        3.00000
 12
        1.00000
 22
        4.00000
 32
        0.00000
 13
        0.00000
 23
        4.00000
 33
        0.00000
999
SHOEBOX:EXTERNAL_WALL_EAST
  0
3DFACE
  8
SHOEBOX
 62
 43
 10
        4.00000
 20
        3.00000
 30
        3.00000
 11
        4.00000
 21
        0.00000
 31
        3.00000
 12
        4.00000
 22
        0.00000
 32
        0.00000
 13
        4.00000
 23
        3.00000
 33
        0.00000
999
SHOEBOX:EAST_WINDOW
  0
3DFACE
  8
SHOEBOX
 62
143
 10
        4.00000
 20
        2.44900
 30
        2.44900
 11
        4.00000
 21
        0.55100
 31
        2.44900
 12
        4.00000
 22
        0.55100
 32
        0.55100
 13
        4.00000
 23
        2.44900
 33
        0.55100
999
SHOEBOX:ADIABATIC_WALL_EAST
  0
3DFACE
  8
SHOEBOX
 62
 43
 10
        4.00000
 20
        4.00000
 30
        3.00000
 11
        4.00000
 21
        3.00000
 31
        3.00000
 12
        4.00000
 22
        3.00000
 32
        0.00000
 13
        4.00000
 23
        4.00000
 33
        0.00000
999
SHOEBOX:FLOOR_ADIABATIC
  0
3DFACE
  8
SHOEBOX
 62
  8
 10
        4.00000
 20
        4.00000
 30
        0.00000
 11
        4.00000
 21
        3.00000
 31
        0.00000
 12
        0.00000
 22
        3.00000
 32
        0.00000
 13
        0.00000
 23
        4.00000
 33
        0.00000
999
SHOEBOX:FLOOR
  0
3DFACE
  8
SHOEBOX
 62
  8
 10
        4.00000
 20
        3.00000
 30
        0.00000
 11
        4.00000
 21
        0.00000
 31
        0.00000
 12
        0.00000
 22
        0.00000
 32
        0.00000
 13
        0.00000
 23
        3.00000
 33
        0.00000
999
SHOEBOX:ROOF_ADIABATIC
  0
3DFACE
  8
SHOEBOX
 62
 15
 10
        0.00000
 20
        4.00000
 30
        3.00000
 11
        0.00000
 21
        3.00000
 31
        3.00000
 12
        4.00000
 22
        3.00000
 32
        3.00000
 13
        4.00000
 23
        4.00000
 33
        3.00000
999
SHOEBOX:ROOF
  0
3DFACE
  8
SHOEBOX
 62
 15
 10
        4.00000
 20
        0.00000
 30
        3.00000
 11
        4.00000
 21
        3.00000
 31
        3.00000
 12
        0.00000
 22
        3.00000
 32
        3.00000
 13
        0.00000
 23
        0.00000
 33
        3.00000
  0
ENDSEC
  0
EOF
